Version 4
SHEET 1 1728 680
WIRE 160 0 112 0
WIRE 544 0 448 0
WIRE 160 16 160 0
WIRE 448 16 448 0
WIRE 304 32 208 32
WIRE 400 32 304 32
WIRE 304 128 304 32
WIRE 304 128 208 128
WIRE 400 128 304 128
WIRE 208 160 208 128
WIRE 304 160 304 128
WIRE 400 160 400 128
WIRE 160 176 160 96
WIRE 160 176 -336 176
WIRE 448 176 448 96
WIRE 896 176 448 176
WIRE -336 192 -336 176
WIRE 112 224 112 0
WIRE 112 224 0 224
WIRE 160 224 112 224
WIRE 544 224 544 0
WIRE 544 224 448 224
WIRE 624 224 544 224
WIRE 208 256 208 240
WIRE 304 256 304 240
WIRE 400 256 400 240
WIRE -336 288 -336 272
WIRE 784 288 720 288
WIRE 896 288 896 176
WIRE 896 288 848 288
WIRE 944 288 896 288
WIRE 1056 288 1008 288
WIRE 1360 304 1280 304
WIRE 1536 304 1456 304
WIRE 1664 304 1536 304
WIRE 720 352 720 288
WIRE 720 352 688 352
WIRE 1056 368 1056 288
WIRE 1120 368 1056 368
WIRE 1200 368 1120 368
WIRE 1280 368 1280 304
WIRE 1280 368 1200 368
WIRE 1536 368 1536 304
WIRE 1120 400 1120 368
WIRE 1200 400 1200 368
WIRE 1664 400 1664 304
WIRE 720 448 720 352
WIRE 800 448 720 448
WIRE 912 448 864 448
WIRE 960 448 912 448
WIRE 1056 448 1056 368
WIRE 1056 448 1024 448
WIRE 1408 448 1408 368
WIRE 1408 448 1280 448
WIRE 688 560 688 352
WIRE 1120 560 1120 464
WIRE 1120 560 688 560
WIRE 1152 560 1120 560
WIRE 1200 560 1200 480
WIRE 1200 560 1152 560
WIRE 1408 560 1408 512
WIRE 1408 560 1200 560
WIRE 1536 560 1536 448
WIRE 1536 560 1408 560
WIRE 1664 560 1664 464
WIRE 1664 560 1536 560
WIRE 624 576 624 224
WIRE 912 576 912 448
WIRE 912 576 624 576
FLAG -336 288 0
FLAG 400 256 0
FLAG 208 256 0
FLAG 208 80 0
FLAG 400 80 0
FLAG 304 256 0
FLAG 0 224 0
FLAG 1152 560 0
FLAG 1536 304 Vout
SYMBOL voltage -336 176 R0
WINDOW 123 0 0 Left 0
WINDOW 39 0 0 Left 0
SYMATTR InstName V1
SYMATTR Value SINE(0 325 50 0 0 0 0)
SYMBOL g 208 144 R0
SYMATTR InstName G1
SYMATTR Value 1
SYMBOL g 400 144 M0
WINDOW 0 -10 9 Right 2
WINDOW 3 -15 96 Right 2
SYMATTR InstName G2
SYMATTR Value {1/N}
SYMBOL g 160 0 M0
WINDOW 0 -10 10 Right 2
WINDOW 3 -16 104 Right 2
SYMATTR InstName G3
SYMATTR Value 1
SYMBOL g 448 0 R0
WINDOW 0 13 18 Left 2
WINDOW 3 12 101 Left 2
SYMATTR InstName G4
SYMATTR Value {1/N}
SYMBOL res 288 144 R0
SYMATTR InstName R2
SYMATTR Value 1G
SYMBOL diode 784 304 R270
WINDOW 0 32 32 VTop 2
WINDOW 3 0 32 VBottom 2
SYMATTR InstName D1
SYMATTR Value 1N914
SYMBOL diode 944 304 R270
WINDOW 0 32 32 VTop 2
WINDOW 3 0 32 VBottom 2
SYMATTR InstName D2
SYMATTR Value 1N914
SYMBOL diode 800 464 R270
WINDOW 0 32 32 VTop 2
WINDOW 3 0 32 VBottom 2
SYMATTR InstName D3
SYMATTR Value 1N914
SYMBOL diode 960 464 R270
WINDOW 0 32 32 VTop 2
WINDOW 3 0 32 VBottom 2
SYMATTR InstName D4
SYMATTR Value 1N914
SYMBOL npn 1360 368 R270
SYMATTR InstName Q1
SYMBOL res 1264 352 R0
SYMATTR InstName R1
SYMATTR Value 1k
SYMBOL zener 1424 512 R180
WINDOW 0 24 64 Left 2
WINDOW 3 24 0 Left 2
SYMATTR InstName D5
SYMATTR Value BZX84C6V2L
SYMBOL res 1520 352 R0
SYMATTR InstName R_load
SYMATTR Value 5k
SYMBOL cap 1104 400 R0
SYMATTR InstName C1
SYMATTR Value 2200µ
SYMBOL res 1184 384 R0
SYMATTR InstName R3
SYMATTR Value 100
SYMBOL cap 1648 400 R0
SYMATTR InstName C2
SYMATTR Value 0.5µ
TEXT 528 336 Left 2 !.tran 100m
TEXT 240 368 Top 1 ;This example schematic is supplied for informational/educational purposes only.
TEXT 312 -24 Bottom 2 ;A ideal transformer with two windings.\nWinding ratio specified with parameter N
TEXT 192 296 Left 2 !.param N=1/15 ; turns ratio
RECTANGLE Normal 576 312 48 -96 2
